Name: Construction Concrete
Type: manmade
Class: General Construction Material
Subclass: Cement Cinderblock
Particle Size: Solid
Sample No.: 0432UUUCNC
Owner: National Photographic Interpretation Center
Wavelength Range: All
Origin: Spectra obtained from the Noncoventional Exploitation FactorsData System of the National Photographic Interpretation Center.
Description: Light brown, cement construction concrete cinderblock. Original ASTER Spectral Library name was jhu.becknic.manmade.construction.cement.solid.0432uuu.spectrum.txt
Measurement: Directional (10 Degree) Hemispherical Reflectance
X Units: Wavelength (micrometers)
Y Units: Reflectance (percent)
wavelength	value
0.42	25.0946
0.424	24.1853
0.428	25.1985
0.432	25.0337
0.436	25.4129
0.44	25.7264
0.444	25.8592
0.448	26.2471
0.452	26.4342
0.456	26.8013
0.46	26.9184
0.464	27.0205
0.468	27.3224
0.472	27.54
0.476	27.8121
0.48	28
0.484	28.2867
0.488	28.6153
0.492	28.935
0.496	29.3011
0.5	29.6064
0.504	29.9385
0.508	30.2227
0.512	30.5401
0.516	30.8467
0.52	31.1463
0.524	31.4497
0.528	31.7401
0.532	32.0448
0.536	32.3432
0.54	32.5957
0.544	32.8259
0.548	33.0172
0.552	33.1958
0.556	33.4038
0.56	33.6191
0.564	33.7723
0.568	33.9624
0.572	34.1733
0.576	34.3454
0.58	34.5063
0.584	34.6635
0.588	34.8073
0.592	34.9388
0.596	35.0701
0.6	35.1661
0.604	35.2743
0.608	35.3751
0.612	35.4299
0.616	35.5107
0.62	35.609
0.624	35.6481
0.628	35.7348
0.632	35.795
0.636	35.8652
0.64	35.9184
0.644	35.9429
0.648	36.0181
0.652	36.0729
0.656	36.1249
0.66	36.1466
0.664	36.207
0.668	36.2745
0.672	36.3094
0.676	36.3822
0.68	36.4001
0.684	36.4343
0.688	36.4735
0.692	36.5244
0.696	36.5706
0.7	36.5779
0.704	36.6562
0.708	36.6831
0.712	36.7154
0.716	36.7261
0.72	36.7637
0.724	36.8029
0.728	36.8046
0.732	36.82
0.736	36.8427
0.74	36.8559
0.744	36.885
0.748	36.8674
0.752	36.8815
0.756	36.8724
0.76	36.9126
0.764	36.8815
0.768	36.8832
0.772	36.9065
0.776	36.8827
0.78	36.8818
0.784	36.883
0.788	36.8791
0.792	36.8212
0.796	36.8271
0.8	36.8371
0.84	36.538
0.88	36.1319
0.92	35.7316
0.96	35.3828
1	35.0329
1.04	34.7281
1.08	34.5727
1.12	34.5017
1.16	34.3755
1.2	34.2619
1.24	34.194
1.28	34.1069
1.32	34.0162
1.36	33.8801
1.4	33.3755
1.44	32.9958
1.48	33.2107
1.52	33.4056
1.56	33.4288
1.6	33.419
1.64	33.3113
1.68	33.2695
1.72	33.1043
1.76	32.8621
1.8	32.7041
1.84	32.5075
1.88	31.6499
1.92	28.5169
1.96	29.0988
2	30.0897
2.04	30.7433
2.08	31.0906
2.12	31.1963
2.16	31.0891
2.2	30.6719
2.24	30.4261
2.28	30.0303
2.32	29.9156
2.36	29.645
2.4	29.0424
2.44	28.0336
2.48	26.6041
2.52	25.9996
2.56	26.249
2.6	26.1882
2.64	25.1756
2.68	20.3697
2.72	10.8658
2.76	5.9809
2.8	5.1352
2.84	4.7008
2.88	4.3929
2.92	4.3471
2.96	4.4349
3	4.5334
3.04	4.7379
3.08	4.894
3.12	5.1853
3.16	5.7037
3.2	6.1828
3.24	6.7736
3.28	7.3417
3.32	7.6586
3.36	7.2369
3.4	7.7016
3.44	8.1317
3.48	7.7406
3.52	9.6532
3.56	11.5644
3.6	12.5443
3.64	13.3466
3.68	13.9145
3.72	14.3132
3.76	14.4262
3.8	13.4441
3.84	11.3364
3.88	10.6857
3.92	9.7713
3.96	6.9987
4	7.7498
4.04	12.2558
4.08	14.8217
4.12	15.4548
4.16	15.5135
4.2	15.1215
4.24	13.8999
4.28	13.4087
4.32	13.858
4.36	13.6515
4.4	13.0435
4.44	12.5247
4.48	12.1556
4.52	12.1394
4.56	12.1973
4.6	11.9811
4.64	11.4428
4.68	10.938
4.72	11.2753
4.76	11.3886
4.8	11.355
4.84	10.9714
4.88	10.3374
4.92	9.2475
4.96	8.619
5	7.9664
5.2	7.1399
5.4	5.5193
5.6	3.3274
5.8	3.8033
6	2.3587
6.2	2.221
6.4	4.403
6.6	7.563
6.8	7.863
7	9.1226
7.2	9.7116
7.4	8.4274
7.6	8.3997
7.8	8.3976
8	8.4345
8.2	8.4924
8.4	7.9362
8.6	7.361
8.8	8.0025
9	7.6268
9.2	7.0964
9.4	6.5105
9.6	6.0582
9.8	5.7721
10	5.3675
10.2	4.7784
10.4	4.3778
10.6	4.0821
10.8	3.8147
11	3.7007
11.2	3.3764
11.4	4.5945
11.6	4.9434
11.8	4.0668
12	3.7492
12.2	3.457
12.4	3.6938
12.6	3.6757
12.8	3.7827
13	3.4747
13.2	3.2652
13.4	3.0462
13.6	2.895
13.8	2.6377
14	2.7281
